! Generated by BlenderFDS 6.0.0 on Blender 4.1.0
! Date: Fri, 07 Jun 2024, 09:30:00
! File: ···pace\Research\PINN\apartment_modeling\blender\apart_blender_fds.blend

--- Case from Blender Scene: <Apartment_multi_case> | View Layer: <View Layer>

&HEAD CHID='Apartment_multi_case' TITLE='Apart_multi' /
&TIME T_END=300.0 /
&REAC FYI='propane reaction' FUEL='PROPANE' FORMULA='C1H2O0.5' CO_YIELD=0.070
      SOOT_YIELD=0.030 /
&DUMP NFRAMES=9000 DT_SL3D=0.2 /

--- Free text from Blender Text: <Text>

Insert here other non-geometrical namelists
&BNDF QUANTITY='WALL TEMPERATURE' /
&BNDF QUANTITY='BURNING RATE' /

--- Boundary conditions from Blender Materials

&SURF ID='FIRE' RGB=204,10,13 TRANSPARENCY=0.488 HRRPUA=500 /
&SURF ID='FIRE2' RGB=204,169,169 HRRPUA=250 SPREAD_RATE=0.01
      XYZ=-8.26608,13.04650,4.50000 /
&SURF ID='기본 벽' RGB=204,204,204 TRANSPARENCY=0.582 /
&SURF ID='문 - 패널' RGB=2,1,7 TRANSPARENCY=0.671 /
&SURF ID='문 - 프레임' RGB=0,0,0 TRANSPARENCY=0.671 /
&SURF ID='섀시' RGB=88,92,92 /
&SURF ID='유리' RGB=77,97,204 TRANSPARENCY=0.176 /
&SURF ID='천장 타일 600 x 1200' RGB=204,204,204 TRANSPARENCY=0.788 /

--- Computational domain | MPI Processes: 5 | MESH Qty: 5 | Cell Qty: 1489950

-- MPI Process: <0> | MESH Qty: 1 | Cell Qty: 437250
Cell Qty: 437250 | Size: 0.200·0.200·0.200m | Aspect: 1.0 | Poisson: No
&MESH ID='Mesh 4' IJK=53,75,110 XB=-22.203,-11.603,3.863,18.863,-0.016,21.984
      MPI_PROCESS=0 /

-- MPI Process: <1> | MESH Qty: 1 | Cell Qty: 429000
Cell Qty: 429000 | Size: 0.200·0.200·0.200m | Aspect: 1.0 | Poisson: No
&MESH ID='Mesh 5' IJK=52,75,110 XB=-11.603,-1.203,3.863,18.863,-0.016,21.984
      MPI_PROCESS=1 /

-- MPI Process: <2> | MESH Qty: 1 | Cell Qty: 243540
Cell Qty: 243540 | Size: 0.200·0.200·0.200m | Aspect: 1.0 | Poisson: No
&MESH ID='Mesh 1' IJK=41,54,110 XB=-22.203,-14.003,-6.937,3.863,-0.016,21.984
      MPI_PROCESS=2 /

-- MPI Process: <3> | MESH Qty: 1 | Cell Qty: 243540
Cell Qty: 243540 | Size: 0.200·0.200·0.200m | Aspect: 1.0 | Poisson: No
&MESH ID='Mesh 3' IJK=41,54,110 XB=-9.403,-1.203,-6.937,3.863,-0.016,21.984
      MPI_PROCESS=3 /

-- MPI Process: <4> | MESH Qty: 1 | Cell Qty: 136620
Cell Qty: 136620 | Size: 0.200·0.200·0.200m | Aspect: 1.0 | Poisson: No
&MESH ID='Mesh 2' IJK=23,54,110 XB=-14.003,-9.403,-6.937,3.863,-0.016,21.984
      MPI_PROCESS=4 /

--- Geometric namelists from Blender Collections

-- Blender Collection: <Collection>
&VENT ID='FIRE' SURF_ID='FIRE' XB=-9.066,-7.466,12.347,13.747,4.500,4.500
      SPREAD_RATE=0.01 /

-- Blender Collection: <Devc>

-- Blender Collection: <THER>
&DEVC ID='구체' QUANTITY='THERMOCOUPLE' XYZ=-9.796,-1.703,3.724 SETPOINT=860
      INITIAL_STATE=T /
&DEVC ID='구체.001' QUANTITY='THERMOCOUPLE' XYZ=-9.796,-1.703,5.034 SETPOINT=860
      INITIAL_STATE=T /
&DEVC ID='구체.002' QUANTITY='THERMOCOUPLE' XYZ=-9.796,-1.703,6.770 SETPOINT=860
      INITIAL_STATE=T /
&DEVC ID='구체.003' QUANTITY='THERMOCOUPLE' XYZ=-9.796,-1.703,8.019 SETPOINT=860
      INITIAL_STATE=T /
&DEVC ID='구체.004' QUANTITY='THERMOCOUPLE' XYZ=-9.796,-1.703,9.773 SETPOINT=860
      INITIAL_STATE=T /
&DEVC ID='구체.005' QUANTITY='THERMOCOUPLE' XYZ=-9.796,-1.703,11.040 SETPOINT=860
      INITIAL_STATE=T /
&DEVC ID='구체.006' QUANTITY='THERMOCOUPLE' XYZ=-9.796,-1.703,12.598 SETPOINT=860
      INITIAL_STATE=T /
&DEVC ID='구체.007' QUANTITY='THERMOCOUPLE' XYZ=-9.796,-1.703,15.715 SETPOINT=860
      INITIAL_STATE=T /
&DEVC ID='구체.008' QUANTITY='THERMOCOUPLE' XYZ=-9.796,-1.703,17.371 SETPOINT=860
      INITIAL_STATE=T /
&DEVC ID='구체.009' QUANTITY='THERMOCOUPLE' XYZ=-9.796,-1.703,1.932 SETPOINT=860
      INITIAL_STATE=T /
&DEVC ID='구체.010' QUANTITY='THERMOCOUPLE' XYZ=-9.796,-1.703,0.665 SETPOINT=860
      INITIAL_STATE=T /
&DEVC ID='구체.011' QUANTITY='THERMOCOUPLE' XYZ=-9.796,1.560,0.665 SETPOINT=100
      INITIAL_STATE=T /
&DEVC ID='구체.012' QUANTITY='THERMOCOUPLE' XYZ=-9.796,3.606,0.665 SETPOINT=1535
      INITIAL_STATE=T /
&DEVC ID='구체.013' QUANTITY='THERMOCOUPLE' XYZ=-9.796,3.606,1.956 SETPOINT=1535
      INITIAL_STATE=T /
&DEVC ID='구체.014' QUANTITY='THERMOCOUPLE' XYZ=-9.796,3.606,3.563 SETPOINT=1535
      INITIAL_STATE=T /
&DEVC ID='구체.015' QUANTITY='THERMOCOUPLE' XYZ=-9.796,3.606,5.122 SETPOINT=1535
      INITIAL_STATE=T /
&DEVC ID='구체.016' QUANTITY='THERMOCOUPLE' XYZ=-9.796,3.606,6.632 SETPOINT=1535
      INITIAL_STATE=T /
&DEVC ID='구체.017' QUANTITY='THERMOCOUPLE' XYZ=-9.796,3.606,8.093 SETPOINT=1535
      INITIAL_STATE=T /
&DEVC ID='구체.018' QUANTITY='THERMOCOUPLE' XYZ=-9.796,3.606,9.525 SETPOINT=1535
      INITIAL_STATE=T /
&DEVC ID='구체.019' QUANTITY='THERMOCOUPLE' XYZ=-9.796,3.606,11.059 SETPOINT=1535
      INITIAL_STATE=T /
&DEVC ID='구체.020' QUANTITY='THERMOCOUPLE' XYZ=-9.796,3.606,12.624 SETPOINT=1535
      INITIAL_STATE=T /
&DEVC ID='구체.021' QUANTITY='THERMOCOUPLE' XYZ=-9.796,3.606,14.061 SETPOINT=1535
      INITIAL_STATE=T /
&DEVC ID='구체.022' QUANTITY='THERMOCOUPLE' XYZ=-9.796,3.606,15.692 SETPOINT=1535
      INITIAL_STATE=T /
&DEVC ID='구체.023' QUANTITY='THERMOCOUPLE' XYZ=-9.796,3.606,17.226 SETPOINT=1535
      INITIAL_STATE=T /
&DEVC ID='구체.024' QUANTITY='THERMOCOUPLE' XYZ=-9.796,1.560,1.956 SETPOINT=100
      INITIAL_STATE=T /
&DEVC ID='구체.025' QUANTITY='THERMOCOUPLE' XYZ=-9.796,1.560,3.661 SETPOINT=100
      INITIAL_STATE=T /
&DEVC ID='구체.026' QUANTITY='THERMOCOUPLE' XYZ=-9.796,1.560,5.122 SETPOINT=100
      INITIAL_STATE=T /
&DEVC ID='구체.027' QUANTITY='THERMOCOUPLE' XYZ=-9.796,1.560,6.729 SETPOINT=100
      INITIAL_STATE=T /
&DEVC ID='구체.028' QUANTITY='THERMOCOUPLE' XYZ=-9.796,1.560,8.093 SETPOINT=100
      INITIAL_STATE=T /
&DEVC ID='구체.029' QUANTITY='THERMOCOUPLE' XYZ=-9.796,1.560,9.627 SETPOINT=100
      INITIAL_STATE=T /
&DEVC ID='구체.030' QUANTITY='THERMOCOUPLE' XYZ=-9.796,1.560,11.064 SETPOINT=100
      INITIAL_STATE=T /
&DEVC ID='구체.031' QUANTITY='THERMOCOUPLE' XYZ=-9.796,1.560,12.501 SETPOINT=100
      INITIAL_STATE=T /
&DEVC ID='구체.032' QUANTITY='THERMOCOUPLE' XYZ=-9.796,1.560,14.035 SETPOINT=100
      INITIAL_STATE=T /
&DEVC ID='구체.033' QUANTITY='THERMOCOUPLE' XYZ=-9.796,1.560,15.667 SETPOINT=100
      INITIAL_STATE=T /
&DEVC ID='구체.034' QUANTITY='THERMOCOUPLE' XYZ=-9.796,1.560,17.274 SETPOINT=100
      INITIAL_STATE=T /
&DEVC ID='구체.035' QUANTITY='THERMOCOUPLE' XYZ=-9.796,-1.703,13.962 SETPOINT=860
      INITIAL_STATE=T /
&DEVC ID='구체.036' QUANTITY='THERMOCOUPLE' XYZ=-11.692,-1.703,9.773 SETPOINT=860
      INITIAL_STATE=T /
&DEVC ID='구체.037' QUANTITY='THERMOCOUPLE' XYZ=-11.692,-1.703,8.069 SETPOINT=860
      INITIAL_STATE=T /
&DEVC ID='구체.038' QUANTITY='THERMOCOUPLE' XYZ=-11.692,-1.703,6.778 SETPOINT=860
      INITIAL_STATE=T /
&DEVC ID='구체.039' QUANTITY='THERMOCOUPLE' XYZ=-11.692,-1.703,5.146 SETPOINT=860
      INITIAL_STATE=T /
&DEVC ID='구체.040' QUANTITY='THERMOCOUPLE' XYZ=-11.692,-1.703,3.783 SETPOINT=860
      INITIAL_STATE=T /
&DEVC ID='구체.041' QUANTITY='THERMOCOUPLE' XYZ=-11.692,-1.703,2.005 SETPOINT=860
      INITIAL_STATE=T /
&DEVC ID='구체.042' QUANTITY='THERMOCOUPLE' XYZ=-11.692,-1.703,0.641 SETPOINT=860
      INITIAL_STATE=T /
&DEVC ID='구체.043' QUANTITY='THERMOCOUPLE' XYZ=-11.692,-1.703,10.942 SETPOINT=860
      INITIAL_STATE=T /
&DEVC ID='구체.044' QUANTITY='THERMOCOUPLE' XYZ=-11.692,-1.703,12.574 SETPOINT=860
      INITIAL_STATE=T /
&DEVC ID='구체.045' QUANTITY='THERMOCOUPLE' XYZ=-11.692,-1.703,13.938 SETPOINT=860
      INITIAL_STATE=T /
&DEVC ID='구체.046' QUANTITY='THERMOCOUPLE' XYZ=-11.692,-1.703,15.642 SETPOINT=860
      INITIAL_STATE=T /
&DEVC ID='구체.047' QUANTITY='THERMOCOUPLE' XYZ=-11.692,-1.703,17.444 SETPOINT=860
      INITIAL_STATE=T /
&DEVC ID='구체.048' QUANTITY='THERMOCOUPLE' XYZ=-13.546,-1.703,13.962 SETPOINT=860
      INITIAL_STATE=T /
&DEVC ID='구체.049' QUANTITY='THERMOCOUPLE' XYZ=-13.546,-1.703,12.598 SETPOINT=860
      INITIAL_STATE=T /
&DEVC ID='구체.050' QUANTITY='THERMOCOUPLE' XYZ=-13.546,-1.703,10.991 SETPOINT=860
      INITIAL_STATE=T /
&DEVC ID='구체.051' QUANTITY='THERMOCOUPLE' XYZ=-13.546,-1.703,9.725 SETPOINT=860
      INITIAL_STATE=T /
&DEVC ID='구체.052' QUANTITY='THERMOCOUPLE' XYZ=-13.546,-1.703,8.190 SETPOINT=860
      INITIAL_STATE=T /
&DEVC ID='구체.053' QUANTITY='THERMOCOUPLE' XYZ=-13.546,-1.703,6.827 SETPOINT=860
      INITIAL_STATE=T /
&DEVC ID='구체.054' QUANTITY='THERMOCOUPLE' XYZ=-13.546,-1.703,5.219 SETPOINT=860
      INITIAL_STATE=T /
&DEVC ID='구체.055' QUANTITY='THERMOCOUPLE' XYZ=-13.546,-1.703,3.758 SETPOINT=860
      INITIAL_STATE=T /
&DEVC ID='구체.056' QUANTITY='THERMOCOUPLE' XYZ=-13.546,-1.703,2.054 SETPOINT=860
      INITIAL_STATE=T /
&DEVC ID='구체.057' QUANTITY='THERMOCOUPLE' XYZ=-13.546,-1.703,0.617 SETPOINT=860
      INITIAL_STATE=T /
&DEVC ID='구체.058' QUANTITY='THERMOCOUPLE' XYZ=-13.546,-1.703,15.618 SETPOINT=860
      INITIAL_STATE=T /
&DEVC ID='구체.059' QUANTITY='THERMOCOUPLE' XYZ=-13.546,-1.703,17.396 SETPOINT=860
      INITIAL_STATE=T /
&DEVC ID='구체.060' QUANTITY='THERMOCOUPLE' XYZ=-11.744,3.606,0.665 SETPOINT=1535
      INITIAL_STATE=T /
&DEVC ID='구체.061' QUANTITY='THERMOCOUPLE' XYZ=-11.744,3.606,1.932 SETPOINT=1535
      INITIAL_STATE=T /
&DEVC ID='구체.062' QUANTITY='THERMOCOUPLE' XYZ=-11.744,3.606,3.636 SETPOINT=1535
      INITIAL_STATE=T /
&DEVC ID='구체.063' QUANTITY='THERMOCOUPLE' XYZ=-11.744,3.606,5.073 SETPOINT=1535
      INITIAL_STATE=T /
&DEVC ID='구체.064' QUANTITY='THERMOCOUPLE' XYZ=-11.744,3.606,6.705 SETPOINT=1535
      INITIAL_STATE=T /
&DEVC ID='구체.065' QUANTITY='THERMOCOUPLE' XYZ=-11.744,3.606,8.069 SETPOINT=1535
      INITIAL_STATE=T /
&DEVC ID='구체.066' QUANTITY='THERMOCOUPLE' XYZ=-11.744,3.606,9.676 SETPOINT=1535
      INITIAL_STATE=T /
&DEVC ID='구체.067' QUANTITY='THERMOCOUPLE' XYZ=-11.744,3.606,10.967 SETPOINT=1535
      INITIAL_STATE=T /
&DEVC ID='구체.068' QUANTITY='THERMOCOUPLE' XYZ=-11.744,3.606,12.647 SETPOINT=1535
      INITIAL_STATE=T /
&DEVC ID='구체.069' QUANTITY='THERMOCOUPLE' XYZ=-11.744,3.606,14.035 SETPOINT=1535
      INITIAL_STATE=T /
&DEVC ID='구체.070' QUANTITY='THERMOCOUPLE' XYZ=-11.744,3.606,15.642 SETPOINT=1535
      INITIAL_STATE=T /
&DEVC ID='구체.071' QUANTITY='THERMOCOUPLE' XYZ=-11.744,3.606,17.420 SETPOINT=1535
      INITIAL_STATE=T /
&DEVC ID='구체.072' QUANTITY='THERMOCOUPLE' XYZ=-13.522,3.606,17.420 SETPOINT=1535
      INITIAL_STATE=T /
&DEVC ID='구체.073' QUANTITY='THERMOCOUPLE' XYZ=-13.522,3.606,15.680 SETPOINT=1535
      INITIAL_STATE=T /
&DEVC ID='구체.074' QUANTITY='THERMOCOUPLE' XYZ=-13.522,3.606,14.048 SETPOINT=1535
      INITIAL_STATE=T /
&DEVC ID='구체.075' QUANTITY='THERMOCOUPLE' XYZ=-13.522,3.606,12.514 SETPOINT=1535
      INITIAL_STATE=T /
&DEVC ID='구체.076' QUANTITY='THERMOCOUPLE' XYZ=-13.522,3.606,11.013 SETPOINT=1535
      INITIAL_STATE=T /
&DEVC ID='구체.077' QUANTITY='THERMOCOUPLE' XYZ=-13.522,3.606,9.552 SETPOINT=1535
      INITIAL_STATE=T /
&DEVC ID='구체.078' QUANTITY='THERMOCOUPLE' XYZ=-13.522,3.606,8.042 SETPOINT=1535
      INITIAL_STATE=T /
&DEVC ID='구체.079' QUANTITY='THERMOCOUPLE' XYZ=-13.522,3.606,6.751 SETPOINT=1535
      INITIAL_STATE=T /
&DEVC ID='구체.080' QUANTITY='THERMOCOUPLE' XYZ=-13.522,3.606,5.217 SETPOINT=1535
      INITIAL_STATE=T /
&DEVC ID='구체.081' QUANTITY='THERMOCOUPLE' XYZ=-13.522,3.606,3.780 SETPOINT=1535
      INITIAL_STATE=T /
&DEVC ID='구체.082' QUANTITY='THERMOCOUPLE' XYZ=-13.522,3.606,1.880 SETPOINT=1535
      INITIAL_STATE=T /
&DEVC ID='구체.083' QUANTITY='THERMOCOUPLE' XYZ=-13.522,3.606,0.590 SETPOINT=1535
      INITIAL_STATE=T /
&DEVC ID='구체.084' QUANTITY='THERMOCOUPLE' XYZ=-13.522,1.575,17.420 SETPOINT=100
      INITIAL_STATE=T /
&DEVC ID='구체.085' QUANTITY='THERMOCOUPLE' XYZ=-13.522,1.575,15.715 SETPOINT=100
      INITIAL_STATE=T /
&DEVC ID='구체.086' QUANTITY='THERMOCOUPLE' XYZ=-13.522,1.575,14.011 SETPOINT=100
      INITIAL_STATE=T /
&DEVC ID='구체.087' QUANTITY='THERMOCOUPLE' XYZ=-13.522,1.575,12.574 SETPOINT=100
      INITIAL_STATE=T /
&DEVC ID='구체.088' QUANTITY='THERMOCOUPLE' XYZ=-13.522,1.575,11.015 SETPOINT=100
      INITIAL_STATE=T /
&DEVC ID='구체.089' QUANTITY='THERMOCOUPLE' XYZ=-13.522,1.575,9.652 SETPOINT=100
      INITIAL_STATE=T /
&DEVC ID='구체.090' QUANTITY='THERMOCOUPLE' XYZ=-13.522,1.575,8.044 SETPOINT=100
      INITIAL_STATE=T /
&DEVC ID='구체.091' QUANTITY='THERMOCOUPLE' XYZ=-13.522,1.575,6.778 SETPOINT=100
      INITIAL_STATE=T /
&DEVC ID='구체.092' QUANTITY='THERMOCOUPLE' XYZ=-13.522,1.575,5.146 SETPOINT=100
      INITIAL_STATE=T /
&DEVC ID='구체.093' QUANTITY='THERMOCOUPLE' XYZ=-13.522,1.575,3.612 SETPOINT=100
      INITIAL_STATE=T /
&DEVC ID='구체.094' QUANTITY='THERMOCOUPLE' XYZ=-13.522,1.665,1.907 SETPOINT=100
      INITIAL_STATE=T /
&DEVC ID='구체.095' QUANTITY='THERMOCOUPLE' XYZ=-13.522,1.575,0.714 SETPOINT=100
      INITIAL_STATE=T /
&DEVC ID='구체.096' QUANTITY='THERMOCOUPLE' XYZ=-13.150,3.826,3.890 SETPOINT=1535
      INITIAL_STATE=T /
&DEVC ID='구체.097' QUANTITY='THERMOCOUPLE' XYZ=-13.150,3.589,6.893 SETPOINT=1535
      INITIAL_STATE=T /
&DEVC ID='구체.098' QUANTITY='THERMOCOUPLE' XYZ=-13.150,3.826,9.971 SETPOINT=1535
      INITIAL_STATE=T /
&DEVC ID='구체.099' QUANTITY='THERMOCOUPLE' XYZ=-13.150,3.826,12.829 SETPOINT=1535
      INITIAL_STATE=T /
&DEVC ID='구체.100' QUANTITY='THERMOCOUPLE' XYZ=-13.150,3.826,15.890 SETPOINT=1535
      INITIAL_STATE=T /
&DEVC ID='구체.101' QUANTITY='THERMOCOUPLE' XYZ=-12.993,3.826,18.861 SETPOINT=1535
      INITIAL_STATE=T /
&DEVC ID='구체.102' QUANTITY='THERMOCOUPLE' XYZ=-10.349,3.826,15.890 SETPOINT=1535
      INITIAL_STATE=T /
&DEVC ID='구체.103' QUANTITY='THERMOCOUPLE' XYZ=-10.349,3.826,12.879 SETPOINT=1535
      INITIAL_STATE=T /
&DEVC ID='구체.104' QUANTITY='THERMOCOUPLE' XYZ=-10.349,3.826,9.971 SETPOINT=1535
      INITIAL_STATE=T /
&DEVC ID='구체.105' QUANTITY='THERMOCOUPLE' XYZ=-10.349,3.826,6.960 SETPOINT=1535
      INITIAL_STATE=T /
&DEVC ID='구체.106' QUANTITY='THERMOCOUPLE' XYZ=-10.349,3.826,3.883 SETPOINT=1535
      INITIAL_STATE=T /
&DEVC ID='구체.107' QUANTITY='THERMOCOUPLE' XYZ=-8.163,3.826,15.890 SETPOINT=280
      INITIAL_STATE=T /
&DEVC ID='구체.108' QUANTITY='THERMOCOUPLE' XYZ=-15.347,3.826,15.890 SETPOINT=280
      INITIAL_STATE=T /
&DEVC ID='구체.109' QUANTITY='THERMOCOUPLE' XYZ=-15.347,3.826,12.889 SETPOINT=280
      INITIAL_STATE=T /
&DEVC ID='구체.110' QUANTITY='THERMOCOUPLE' XYZ=-15.347,3.826,10.028 SETPOINT=280
      INITIAL_STATE=T /
&DEVC ID='구체.111' QUANTITY='THERMOCOUPLE' XYZ=-15.347,3.826,6.923 SETPOINT=280
      INITIAL_STATE=T /
&DEVC ID='구체.112' QUANTITY='THERMOCOUPLE' XYZ=-15.347,3.826,3.940 SETPOINT=280
      INITIAL_STATE=T /
&DEVC ID='구체.113' QUANTITY='THERMOCOUPLE' XYZ=-8.163,3.826,3.940 SETPOINT=280
      INITIAL_STATE=T /
&DEVC ID='구체.114' QUANTITY='THERMOCOUPLE' XYZ=-8.163,3.826,6.923 SETPOINT=280
      INITIAL_STATE=T /
&DEVC ID='구체.115' QUANTITY='THERMOCOUPLE' XYZ=-8.163,3.826,9.967 SETPOINT=280
      INITIAL_STATE=T /
&DEVC ID='구체.116' QUANTITY='THERMOCOUPLE' XYZ=-8.163,3.826,12.889 SETPOINT=280
      INITIAL_STATE=T /
&DEVC ID='구체.468' QUANTITY='THERMOCOUPLE' XYZ=-10.625,3.609,18.901 SETPOINT=860
      INITIAL_STATE=T /
&DEVC ID='구체.469' QUANTITY='THERMOCOUPLE' XYZ=-11.690,-1.738,18.901 SETPOINT=860
      INITIAL_STATE=T /
&DEVC ID='구체.470' QUANTITY='THERMOCOUPLE' XYZ=-7.953,-1.738,15.664 SETPOINT=860
      INITIAL_STATE=T /
&DEVC ID='구체.471' QUANTITY='THERMOCOUPLE' XYZ=-5.940,-1.738,15.664 SETPOINT=860
      INITIAL_STATE=T /
&DEVC ID='구체.472' QUANTITY='THERMOCOUPLE' XYZ=-17.474,-1.738,15.664 SETPOINT=860
      INITIAL_STATE=T /
&DEVC ID='구체.473' QUANTITY='THERMOCOUPLE' XYZ=-15.411,-1.738,15.664 SETPOINT=860
      INITIAL_STATE=T /
&DEVC ID='구체.474' QUANTITY='THERMOCOUPLE' XYZ=-7.953,-1.738,15.664 SETPOINT=860
      INITIAL_STATE=T /
&DEVC ID='구체.475' QUANTITY='THERMOCOUPLE' XYZ=-5.940,-1.738,15.664 SETPOINT=860
      INITIAL_STATE=T /
&DEVC ID='구체.476' QUANTITY='THERMOCOUPLE' XYZ=-17.474,-1.738,15.664 SETPOINT=860
      INITIAL_STATE=T /
&DEVC ID='구체.477' QUANTITY='THERMOCOUPLE' XYZ=-15.411,-1.738,15.664 SETPOINT=860
      INITIAL_STATE=T /
&DEVC ID='구체.478' QUANTITY='THERMOCOUPLE' XYZ=-7.953,-1.738,12.941 SETPOINT=860
      INITIAL_STATE=T /
&DEVC ID='구체.479' QUANTITY='THERMOCOUPLE' XYZ=-5.940,-1.738,12.941 SETPOINT=860
      INITIAL_STATE=T /
&DEVC ID='구체.480' QUANTITY='THERMOCOUPLE' XYZ=-17.474,-1.738,12.941 SETPOINT=860
      INITIAL_STATE=T /
&DEVC ID='구체.481' QUANTITY='THERMOCOUPLE' XYZ=-15.411,-1.738,12.941 SETPOINT=860
      INITIAL_STATE=T /
&DEVC ID='구체.482' QUANTITY='THERMOCOUPLE' XYZ=-7.953,-1.738,9.914 SETPOINT=860
      INITIAL_STATE=T /
&DEVC ID='구체.483' QUANTITY='THERMOCOUPLE' XYZ=-5.940,-1.738,9.914 SETPOINT=860
      INITIAL_STATE=T /
&DEVC ID='구체.484' QUANTITY='THERMOCOUPLE' XYZ=-17.474,-1.738,9.914 SETPOINT=860
      INITIAL_STATE=T /
&DEVC ID='구체.485' QUANTITY='THERMOCOUPLE' XYZ=-15.411,-1.738,9.914 SETPOINT=860
      INITIAL_STATE=T /
&DEVC ID='구체.486' QUANTITY='THERMOCOUPLE' XYZ=-7.953,-1.738,6.886 SETPOINT=860
      INITIAL_STATE=T /
&DEVC ID='구체.487' QUANTITY='THERMOCOUPLE' XYZ=-5.940,-1.738,6.886 SETPOINT=860
      INITIAL_STATE=T /
&DEVC ID='구체.488' QUANTITY='THERMOCOUPLE' XYZ=-17.474,-1.738,6.886 SETPOINT=860
      INITIAL_STATE=T /
&DEVC ID='구체.489' QUANTITY='THERMOCOUPLE' XYZ=-15.411,-1.738,6.886 SETPOINT=860
      INITIAL_STATE=T /
&DEVC ID='구체.490' QUANTITY='THERMOCOUPLE' XYZ=-7.953,-1.738,3.978 SETPOINT=860
      INITIAL_STATE=T /
&DEVC ID='구체.491' QUANTITY='THERMOCOUPLE' XYZ=-5.940,-1.738,3.978 SETPOINT=860
      INITIAL_STATE=T /
&DEVC ID='구체.492' QUANTITY='THERMOCOUPLE' XYZ=-17.474,-1.738,3.978 SETPOINT=860
      INITIAL_STATE=T /
&DEVC ID='구체.493' QUANTITY='THERMOCOUPLE' XYZ=-15.411,-1.738,3.978 SETPOINT=860
      INITIAL_STATE=T /
&DEVC ID='구체.494' QUANTITY='THERMOCOUPLE' XYZ=-7.307,-0.145,15.664 SETPOINT=860
      INITIAL_STATE=T /
&DEVC ID='구체.495' QUANTITY='THERMOCOUPLE' XYZ=-16.186,-0.145,15.664 SETPOINT=860
      INITIAL_STATE=T /
&DEVC ID='구체.496' QUANTITY='THERMOCOUPLE' XYZ=-7.307,-0.145,12.936 SETPOINT=860
      INITIAL_STATE=T /
&DEVC ID='구체.497' QUANTITY='THERMOCOUPLE' XYZ=-16.186,-0.145,12.936 SETPOINT=860
      INITIAL_STATE=T /
&DEVC ID='구체.498' QUANTITY='THERMOCOUPLE' XYZ=-7.307,-0.145,9.941 SETPOINT=860
      INITIAL_STATE=T /
&DEVC ID='구체.499' QUANTITY='THERMOCOUPLE' XYZ=-16.186,-0.145,9.941 SETPOINT=860
      INITIAL_STATE=T /
&DEVC ID='구체.500' QUANTITY='THERMOCOUPLE' XYZ=-7.307,-0.145,6.970 SETPOINT=860
      INITIAL_STATE=T /
&DEVC ID='구체.501' QUANTITY='THERMOCOUPLE' XYZ=-16.186,-0.145,6.970 SETPOINT=860
      INITIAL_STATE=T /
&DEVC ID='구체.502' QUANTITY='THERMOCOUPLE' XYZ=-7.307,-0.145,3.901 SETPOINT=860
      INITIAL_STATE=T /
&DEVC ID='구체.503' QUANTITY='THERMOCOUPLE' XYZ=-16.186,-0.145,3.901 SETPOINT=860
      INITIAL_STATE=T /
&DEVC ID='구체.504' QUANTITY='THERMOCOUPLE' XYZ=-17.607,15.178,15.664 SETPOINT=860
      INITIAL_STATE=T /
&DEVC ID='구체.505' QUANTITY='THERMOCOUPLE' XYZ=-15.395,15.178,15.664 SETPOINT=860
      INITIAL_STATE=T /
&DEVC ID='구체.506' QUANTITY='THERMOCOUPLE' XYZ=-13.061,15.178,15.664 SETPOINT=860
      INITIAL_STATE=T /
&DEVC ID='구체.507' QUANTITY='THERMOCOUPLE' XYZ=-10.341,15.178,15.664 SETPOINT=860
      INITIAL_STATE=T /
&DEVC ID='구체.508' QUANTITY='THERMOCOUPLE' XYZ=-8.089,15.178,15.664 SETPOINT=860
      INITIAL_STATE=T /
&DEVC ID='구체.509' QUANTITY='THERMOCOUPLE' XYZ=-5.877,15.178,15.664 SETPOINT=860
      INITIAL_STATE=T /
&DEVC ID='구체.510' QUANTITY='THERMOCOUPLE' XYZ=-17.607,13.812,15.664 SETPOINT=860
      INITIAL_STATE=T /
&DEVC ID='구체.511' QUANTITY='THERMOCOUPLE' XYZ=-15.394,13.812,15.664 SETPOINT=860
      INITIAL_STATE=T /
&DEVC ID='구체.512' QUANTITY='THERMOCOUPLE' XYZ=-8.067,13.812,15.664 SETPOINT=860
      INITIAL_STATE=T /
&DEVC ID='구체.513' QUANTITY='THERMOCOUPLE' XYZ=-5.855,13.812,15.664 SETPOINT=860
      INITIAL_STATE=T /
&DEVC ID='구체.514' QUANTITY='THERMOCOUPLE' XYZ=-9.975,13.812,15.664 SETPOINT=860
      INITIAL_STATE=T /
&DEVC ID='구체.515' QUANTITY='THERMOCOUPLE' XYZ=-9.975,10.890,15.664 SETPOINT=860
      INITIAL_STATE=T /
&DEVC ID='구체.516' QUANTITY='THERMOCOUPLE' XYZ=-13.466,10.890,15.664 SETPOINT=860
      INITIAL_STATE=T /
&DEVC ID='구체.517' QUANTITY='THERMOCOUPLE' XYZ=-17.607,15.178,12.873 SETPOINT=860
      INITIAL_STATE=T /
&DEVC ID='구체.518' QUANTITY='THERMOCOUPLE' XYZ=-15.395,15.178,12.873 SETPOINT=860
      INITIAL_STATE=T /
&DEVC ID='구체.519' QUANTITY='THERMOCOUPLE' XYZ=-13.061,15.178,12.873 SETPOINT=860
      INITIAL_STATE=T /
&DEVC ID='구체.520' QUANTITY='THERMOCOUPLE' XYZ=-10.341,15.178,12.873 SETPOINT=860
      INITIAL_STATE=T /
&DEVC ID='구체.521' QUANTITY='THERMOCOUPLE' XYZ=-8.089,15.178,12.873 SETPOINT=860
      INITIAL_STATE=T /
&DEVC ID='구체.522' QUANTITY='THERMOCOUPLE' XYZ=-5.877,15.178,12.873 SETPOINT=860
      INITIAL_STATE=T /
&DEVC ID='구체.523' QUANTITY='THERMOCOUPLE' XYZ=-17.607,13.812,12.873 SETPOINT=860
      INITIAL_STATE=T /
&DEVC ID='구체.524' QUANTITY='THERMOCOUPLE' XYZ=-15.394,13.812,12.873 SETPOINT=860
      INITIAL_STATE=T /
&DEVC ID='구체.525' QUANTITY='THERMOCOUPLE' XYZ=-8.067,13.812,12.873 SETPOINT=860
      INITIAL_STATE=T /
&DEVC ID='구체.526' QUANTITY='THERMOCOUPLE' XYZ=-5.855,13.812,12.873 SETPOINT=860
      INITIAL_STATE=T /
&DEVC ID='구체.527' QUANTITY='THERMOCOUPLE' XYZ=-9.975,13.812,12.873 SETPOINT=860
      INITIAL_STATE=T /
&DEVC ID='구체.528' QUANTITY='THERMOCOUPLE' XYZ=-9.975,10.890,12.873 SETPOINT=860
      INITIAL_STATE=T /
&DEVC ID='구체.529' QUANTITY='THERMOCOUPLE' XYZ=-13.466,10.890,12.873 SETPOINT=860
      INITIAL_STATE=T /
&DEVC ID='구체.530' QUANTITY='THERMOCOUPLE' XYZ=-17.607,15.178,9.812 SETPOINT=860
      INITIAL_STATE=T /
&DEVC ID='구체.531' QUANTITY='THERMOCOUPLE' XYZ=-15.395,15.178,9.812 SETPOINT=860
      INITIAL_STATE=T /
&DEVC ID='구체.532' QUANTITY='THERMOCOUPLE' XYZ=-13.061,15.178,9.812 SETPOINT=860
      INITIAL_STATE=T /
&DEVC ID='구체.533' QUANTITY='THERMOCOUPLE' XYZ=-10.341,15.178,9.812 SETPOINT=860
      INITIAL_STATE=T /
&DEVC ID='구체.534' QUANTITY='THERMOCOUPLE' XYZ=-8.089,15.178,9.812 SETPOINT=860
      INITIAL_STATE=T /
&DEVC ID='구체.535' QUANTITY='THERMOCOUPLE' XYZ=-5.877,15.178,9.812 SETPOINT=860
      INITIAL_STATE=T /
&DEVC ID='구체.536' QUANTITY='THERMOCOUPLE' XYZ=-17.607,13.812,9.812 SETPOINT=860
      INITIAL_STATE=T /
&DEVC ID='구체.537' QUANTITY='THERMOCOUPLE' XYZ=-15.394,13.812,9.812 SETPOINT=860
      INITIAL_STATE=T /
&DEVC ID='구체.538' QUANTITY='THERMOCOUPLE' XYZ=-8.067,13.812,9.812 SETPOINT=860
      INITIAL_STATE=T /
&DEVC ID='구체.539' QUANTITY='THERMOCOUPLE' XYZ=-5.855,13.812,9.812 SETPOINT=860
      INITIAL_STATE=T /
&DEVC ID='구체.540' QUANTITY='THERMOCOUPLE' XYZ=-9.975,13.812,9.812 SETPOINT=860
      INITIAL_STATE=T /
&DEVC ID='구체.541' QUANTITY='THERMOCOUPLE' XYZ=-9.975,10.890,9.812 SETPOINT=860
      INITIAL_STATE=T /
&DEVC ID='구체.542' QUANTITY='THERMOCOUPLE' XYZ=-13.466,10.890,9.812 SETPOINT=860
      INITIAL_STATE=T /
&DEVC ID='구체.543' QUANTITY='THERMOCOUPLE' XYZ=-17.607,15.178,6.836 SETPOINT=860
      INITIAL_STATE=T /
&DEVC ID='구체.544' QUANTITY='THERMOCOUPLE' XYZ=-15.395,15.178,6.836 SETPOINT=860
      INITIAL_STATE=T /
&DEVC ID='구체.545' QUANTITY='THERMOCOUPLE' XYZ=-13.061,15.178,6.836 SETPOINT=860
      INITIAL_STATE=T /
&DEVC ID='구체.546' QUANTITY='THERMOCOUPLE' XYZ=-10.341,15.178,6.836 SETPOINT=860
      INITIAL_STATE=T /
&DEVC ID='구체.547' QUANTITY='THERMOCOUPLE' XYZ=-8.089,15.178,6.836 SETPOINT=860
      INITIAL_STATE=T /
&DEVC ID='구체.548' QUANTITY='THERMOCOUPLE' XYZ=-5.877,15.178,6.836 SETPOINT=860
      INITIAL_STATE=T /
&DEVC ID='구체.549' QUANTITY='THERMOCOUPLE' XYZ=-17.607,13.812,6.836 SETPOINT=860
      INITIAL_STATE=T /
&DEVC ID='구체.550' QUANTITY='THERMOCOUPLE' XYZ=-15.394,13.812,6.836 SETPOINT=860
      INITIAL_STATE=T /
&DEVC ID='구체.551' QUANTITY='THERMOCOUPLE' XYZ=-8.067,13.812,6.836 SETPOINT=860
      INITIAL_STATE=T /
&DEVC ID='구체.552' QUANTITY='THERMOCOUPLE' XYZ=-5.855,13.812,6.836 SETPOINT=860
      INITIAL_STATE=T /
&DEVC ID='구체.553' QUANTITY='THERMOCOUPLE' XYZ=-9.975,13.812,6.836 SETPOINT=860
      INITIAL_STATE=T /
&DEVC ID='구체.554' QUANTITY='THERMOCOUPLE' XYZ=-9.975,10.890,6.836 SETPOINT=860
      INITIAL_STATE=T /
&DEVC ID='구체.555' QUANTITY='THERMOCOUPLE' XYZ=-13.466,10.890,6.836 SETPOINT=860
      INITIAL_STATE=T /
&DEVC ID='구체.556' QUANTITY='THERMOCOUPLE' XYZ=-17.607,15.178,3.825 SETPOINT=860
      INITIAL_STATE=T /
&DEVC ID='구체.557' QUANTITY='THERMOCOUPLE' XYZ=-15.395,15.178,3.825 SETPOINT=860
      INITIAL_STATE=T /
&DEVC ID='구체.558' QUANTITY='THERMOCOUPLE' XYZ=-13.061,15.178,3.825 SETPOINT=860
      INITIAL_STATE=T /
&DEVC ID='구체.559' QUANTITY='THERMOCOUPLE' XYZ=-10.341,15.178,3.825 SETPOINT=860
      INITIAL_STATE=T /
&DEVC ID='구체.560' QUANTITY='THERMOCOUPLE' XYZ=-8.089,15.178,3.825 SETPOINT=860
      INITIAL_STATE=T /
&DEVC ID='구체.561' QUANTITY='THERMOCOUPLE' XYZ=-5.877,15.178,3.825 SETPOINT=860
      INITIAL_STATE=T /
&DEVC ID='구체.562' QUANTITY='THERMOCOUPLE' XYZ=-17.607,13.812,3.825 SETPOINT=860
      INITIAL_STATE=T /
&DEVC ID='구체.563' QUANTITY='THERMOCOUPLE' XYZ=-15.394,13.812,3.825 SETPOINT=860
      INITIAL_STATE=T /
&DEVC ID='구체.564' QUANTITY='THERMOCOUPLE' XYZ=-8.067,13.812,3.825 SETPOINT=860
      INITIAL_STATE=T /
&DEVC ID='구체.565' QUANTITY='THERMOCOUPLE' XYZ=-5.855,13.812,3.825 SETPOINT=860
      INITIAL_STATE=T /
&DEVC ID='구체.566' QUANTITY='THERMOCOUPLE' XYZ=-9.975,13.812,3.825 SETPOINT=860
      INITIAL_STATE=T /
&DEVC ID='구체.567' QUANTITY='THERMOCOUPLE' XYZ=-9.975,10.890,3.825 SETPOINT=860
      INITIAL_STATE=T /
&DEVC ID='구체.568' QUANTITY='THERMOCOUPLE' XYZ=-13.466,10.890,3.825 SETPOINT=860
      INITIAL_STATE=T /
&DEVC ID='구체.569' QUANTITY='THERMOCOUPLE' XYZ=-8.407,7.406,14.696 SETPOINT=280
      INITIAL_STATE=T /
&DEVC ID='구체.570' QUANTITY='THERMOCOUPLE' XYZ=-14.958,7.406,14.696 SETPOINT=280
      INITIAL_STATE=T /
&DEVC ID='구체.571' QUANTITY='THERMOCOUPLE' XYZ=-6.361,7.723,14.696 SETPOINT=280
      INITIAL_STATE=T /
&DEVC ID='구체.572' QUANTITY='THERMOCOUPLE' XYZ=-17.004,7.723,14.696 SETPOINT=280
      INITIAL_STATE=T /
&DEVC ID='구체.573' QUANTITY='THERMOCOUPLE' XYZ=-8.407,7.406,11.701 SETPOINT=280
      INITIAL_STATE=T /
&DEVC ID='구체.574' QUANTITY='THERMOCOUPLE' XYZ=-14.958,7.406,11.701 SETPOINT=280
      INITIAL_STATE=T /
&DEVC ID='구체.575' QUANTITY='THERMOCOUPLE' XYZ=-17.004,7.723,11.701 SETPOINT=280
      INITIAL_STATE=T /
&DEVC ID='구체.576' QUANTITY='THERMOCOUPLE' XYZ=-6.361,7.723,11.701 SETPOINT=280
      INITIAL_STATE=T /
&DEVC ID='구체.577' QUANTITY='THERMOCOUPLE' XYZ=-8.407,7.406,8.657 SETPOINT=280
      INITIAL_STATE=T /
&DEVC ID='구체.578' QUANTITY='THERMOCOUPLE' XYZ=-14.958,7.406,8.657 SETPOINT=280
      INITIAL_STATE=T /
&DEVC ID='구체.579' QUANTITY='THERMOCOUPLE' XYZ=-17.004,7.723,8.657 SETPOINT=280
      INITIAL_STATE=T /
&DEVC ID='구체.580' QUANTITY='THERMOCOUPLE' XYZ=-6.361,7.723,8.657 SETPOINT=280
      INITIAL_STATE=T /
&DEVC ID='구체.581' QUANTITY='THERMOCOUPLE' XYZ=-8.407,7.406,5.661 SETPOINT=280
      INITIAL_STATE=T /
&DEVC ID='구체.582' QUANTITY='THERMOCOUPLE' XYZ=-14.958,7.406,5.661 SETPOINT=280
      INITIAL_STATE=T /
&DEVC ID='구체.583' QUANTITY='THERMOCOUPLE' XYZ=-17.004,7.723,5.661 SETPOINT=280
      INITIAL_STATE=T /
&DEVC ID='구체.584' QUANTITY='THERMOCOUPLE' XYZ=-6.361,7.723,5.661 SETPOINT=280
      INITIAL_STATE=T /
&DEVC ID='구체.585' QUANTITY='THERMOCOUPLE' XYZ=-8.407,7.406,2.593 SETPOINT=280
      INITIAL_STATE=T /
&DEVC ID='구체.586' QUANTITY='THERMOCOUPLE' XYZ=-14.958,7.406,2.593 SETPOINT=280
      INITIAL_STATE=T /
&DEVC ID='구체.587' QUANTITY='THERMOCOUPLE' XYZ=-17.004,7.723,2.593 SETPOINT=280
      INITIAL_STATE=T /
&DEVC ID='구체.588' QUANTITY='THERMOCOUPLE' XYZ=-6.361,7.723,2.593 SETPOINT=280
      INITIAL_STATE=T /

-- Blender Collection: <OXYG>
&DEVC ID='구체.117' QUANTITY='VOLUME FRACTION' XYZ=-9.796,-1.703,3.724
      SPEC_ID='OXYGEN' /
&DEVC ID='구체.118' QUANTITY='VOLUME FRACTION' XYZ=-9.796,-1.703,5.034
      SPEC_ID='OXYGEN' /
&DEVC ID='구체.119' QUANTITY='VOLUME FRACTION' XYZ=-9.796,-1.703,6.770
      SPEC_ID='OXYGEN' /
&DEVC ID='구체.120' QUANTITY='VOLUME FRACTION' XYZ=-9.796,-1.703,8.019
      SPEC_ID='OXYGEN' /
&DEVC ID='구체.121' QUANTITY='VOLUME FRACTION' XYZ=-9.796,-1.703,9.773
      SPEC_ID='OXYGEN' /
&DEVC ID='구체.122' QUANTITY='VOLUME FRACTION' XYZ=-9.796,-1.703,11.040
      SPEC_ID='OXYGEN' /
&DEVC ID='구체.123' QUANTITY='VOLUME FRACTION' XYZ=-9.796,-1.703,12.598
      SPEC_ID='OXYGEN' /
&DEVC ID='구체.124' QUANTITY='VOLUME FRACTION' XYZ=-9.796,-1.703,15.715
      SPEC_ID='OXYGEN' /
&DEVC ID='구체.125' QUANTITY='VOLUME FRACTION' XYZ=-9.796,-1.703,17.371
      SPEC_ID='OXYGEN' /
&DEVC ID='구체.126' QUANTITY='VOLUME FRACTION' XYZ=-9.796,-1.703,1.932
      SPEC_ID='OXYGEN' /
&DEVC ID='구체.127' QUANTITY='VOLUME FRACTION' XYZ=-9.796,-1.703,0.665
      SPEC_ID='OXYGEN' /
&DEVC ID='구체.128' QUANTITY='VOLUME FRACTION' XYZ=-9.796,1.560,0.665
      SPEC_ID='OXYGEN' /
&DEVC ID='구체.129' QUANTITY='VOLUME FRACTION' XYZ=-9.796,3.606,0.665
      SPEC_ID='OXYGEN' /
&DEVC ID='구체.130' QUANTITY='VOLUME FRACTION' XYZ=-9.796,3.606,1.956
      SPEC_ID='OXYGEN' /
&DEVC ID='구체.131' QUANTITY='VOLUME FRACTION' XYZ=-9.796,3.606,3.563
      SPEC_ID='OXYGEN' /
&DEVC ID='구체.132' QUANTITY='VOLUME FRACTION' XYZ=-9.796,3.606,5.122
      SPEC_ID='OXYGEN' /
&DEVC ID='구체.133' QUANTITY='VOLUME FRACTION' XYZ=-9.796,3.606,6.632
      SPEC_ID='OXYGEN' /
&DEVC ID='구체.134' QUANTITY='VOLUME FRACTION' XYZ=-9.796,3.606,8.093
      SPEC_ID='OXYGEN' /
&DEVC ID='구체.135' QUANTITY='VOLUME FRACTION' XYZ=-9.796,3.606,9.525
      SPEC_ID='OXYGEN' /
&DEVC ID='구체.136' QUANTITY='VOLUME FRACTION' XYZ=-9.796,3.606,11.059
      SPEC_ID='OXYGEN' /
&DEVC ID='구체.137' QUANTITY='VOLUME FRACTION' XYZ=-9.796,3.606,12.624
      SPEC_ID='OXYGEN' /
&DEVC ID='구체.138' QUANTITY='VOLUME FRACTION' XYZ=-9.796,3.606,14.061
      SPEC_ID='OXYGEN' /
&DEVC ID='구체.139' QUANTITY='VOLUME FRACTION' XYZ=-9.796,3.606,15.692
      SPEC_ID='OXYGEN' /
&DEVC ID='구체.140' QUANTITY='VOLUME FRACTION' XYZ=-9.796,3.606,17.226
      SPEC_ID='OXYGEN' /
&DEVC ID='구체.141' QUANTITY='VOLUME FRACTION' XYZ=-9.796,1.560,1.956
      SPEC_ID='OXYGEN' /
&DEVC ID='구체.142' QUANTITY='VOLUME FRACTION' XYZ=-9.796,1.560,3.661
      SPEC_ID='OXYGEN' /
&DEVC ID='구체.143' QUANTITY='VOLUME FRACTION' XYZ=-9.796,1.560,5.122
      SPEC_ID='OXYGEN' /
&DEVC ID='구체.144' QUANTITY='VOLUME FRACTION' XYZ=-9.796,1.560,6.729
      SPEC_ID='OXYGEN' /
&DEVC ID='구체.145' QUANTITY='VOLUME FRACTION' XYZ=-9.796,1.560,8.093